
 OpenBabel01252113213D

 84 87  0  0  1  0  0  0  0  0999 V2000
   13.5081  -30.9891  -23.1477 C   0  0  2  0  0  0  0  0  0  0  0  0
   14.3640  -32.2192  -22.7926 C   0  0  0  0  0  0  0  0  0  0  0  0
   15.6777  -31.9066  -22.0339 C   0  0  0  0  0  0  0  0  0  0  0  0
   17.7036  -34.2107  -19.7675 C   0  0  0  0  0  0  0  0  0  0  0  0
   13.0829  -30.2696  -21.8628 N   0  3  0  0  0  0  0  0  0  0  0  0
   12.3185  -32.3252  -25.5398 C   0  0  0  0  0  0  0  0  0  0  0  0
   11.9170  -33.8363  -25.5618 C   0  0  1  0  0  0  0  0  0  0  0  0
   11.1188  -34.1567  -26.8583 C   0  0  0  0  0  0  0  0  0  0  0  0
   10.6490  -35.6247  -27.0623 C   0  0  0  0  0  0  0  0  0  0  0  0
   16.4075  -33.1406  -21.5068 C   0  0  0  0  0  0  0  0  0  0  0  0
   17.0559  -33.0838  -20.2688 C   0  0  0  0  0  0  0  0  0  0  0  0
   17.7033  -35.3937  -20.5047 C   0  0  0  0  0  0  0  0  0  0  0  0
   17.0757  -35.4550  -21.7462 C   0  0  0  0  0  0  0  0  0  0  0  0
   16.4378  -34.3252  -22.2481 C   0  0  0  0  0  0  0  0  0  0  0  0
   11.8801  -31.3931  -23.9813 P   0  0  1  0  0  0  0  0  0  0  0  0
   11.1438  -32.3156  -23.0545 O   0  0  0  0  0  0  0  0  0  0  0  0
   11.2284  -30.0978  -24.3792 O   0  0  0  0  0  0  0  0  0  0  0  0
    9.6254  -36.1360  -26.0441 C   0  0  0  0  0  0  0  0  0  0  0  0
    9.8173  -37.3833  -25.4402 C   0  0  0  0  0  0  0  0  0  0  0  0
    8.8120  -37.9361  -24.6533 C   0  0  0  0  0  0  0  0  0  0  0  0
    7.6171  -37.2452  -24.4743 C   0  0  0  0  0  0  0  0  0  0  0  0
    7.4253  -35.9944  -25.0510 C   0  0  0  0  0  0  0  0  0  0  0  0
    8.4401  -35.4281  -25.8113 C   0  0  0  0  0  0  0  0  0  0  0  0
   10.1178  -35.8853  -28.4718 C   0  0  0  0  0  0  0  0  0  0  0  0
   10.6681  -36.9170  -29.2376 C   0  0  0  0  0  0  0  0  0  0  0  0
   10.1086  -37.2423  -30.4682 C   0  0  0  0  0  0  0  0  0  0  0  0
    9.0012  -36.5352  -30.9334 C   0  0  0  0  0  0  0  0  0  0  0  0
    8.4634  -35.4927  -30.1879 C   0  0  0  0  0  0  0  0  0  0  0  0
    9.0329  -35.1526  -28.9689 C   0  0  0  0  0  0  0  0  0  0  0  0
   13.1666  -34.7261  -25.4049 C   0  0  0  0  0  0  0  0  0  0  0  0
   14.1599  -34.4964  -26.0902 O   0  0  0  0  0  0  0  0  0  0  0  0
   13.1268  -35.7442  -24.5280 N   0  0  0  0  0  0  0  0  0  0  0  0
   14.2568  -36.6631  -24.3076 C   0  0  1  0  0  0  0  0  0  0  0  0
   14.1098  -37.3858  -22.9449 C   0  0  0  0  0  0  0  0  0  0  0  0
   12.8599  -38.2303  -22.7212 C   0  0  0  0  0  0  0  0  0  0  0  0
   11.9669  -37.9068  -21.6794 C   0  0  0  0  0  0  0  0  0  0  0  0
   10.8410  -38.6886  -21.4605 C   0  0  0  0  0  0  0  0  0  0  0  0
   10.5914  -39.8009  -22.2520 C   0  0  0  0  0  0  0  0  0  0  0  0
   11.4566  -40.1305  -23.2859 C   0  0  0  0  0  0  0  0  0  0  0  0
   12.5829  -39.3566  -23.5266 C   0  0  0  0  0  0  0  0  0  0  0  0
   14.6194  -37.6160  -25.4787 C   0  0  0  0  0  0  0  0  0  0  0  0
   13.7838  -37.7254  -26.5155 N   0  0  0  0  0  0  0  0  0  0  0  0
   15.6779  -38.2373  -25.4354 O   0  0  0  0  0  0  0  0  0  0  0  0
   14.1294  -30.4159  -23.8037 H   0  0  0  0  0  0  0  0  0  0  0  0
   14.6179  -32.7207  -23.7030 H   0  0  0  0  0  0  0  0  0  0  0  0
   13.7710  -32.8146  -22.1303 H   0  0  0  0  0  0  0  0  0  0  0  0
   15.4425  -31.2756  -21.2024 H   0  0  0  0  0  0  0  0  0  0  0  0
   16.3344  -31.4393  -22.7376 H   0  0  0  0  0  0  0  0  0  0  0  0
   18.1818  -34.1698  -18.8539 H   0  0  0  0  0  0  0  0  0  0  0  0
   12.4969  -30.8898  -21.3039 H   0  0  0  0  0  0  0  0  0  0  0  0
   12.5570  -29.4290  -22.1020 H   0  0  0  0  0  0  0  0  0  0  0  0
   13.9119  -30.0113  -21.3275 H   0  0  0  0  0  0  0  0  0  0  0  0
   11.8289  -31.8430  -26.3600 H   0  0  0  0  0  0  0  0  0  0  0  0
   13.3866  -32.3063  -25.6002 H   0  0  0  0  0  0  0  0  0  0  0  0
   11.2760  -34.0485  -24.7318 H   0  0  0  0  0  0  0  0  0  0  0  0
   11.7406  -33.8997  -27.6903 H   0  0  0  0  0  0  0  0  0  0  0  0
   10.2160  -33.5889  -26.7723 H   0  0  0  0  0  0  0  0  0  0  0  0
   11.5497  -36.1799  -26.9032 H   0  0  0  0  0  0  0  0  0  0  0  0
   17.0545  -32.2060  -19.7261 H   0  0  0  0  0  0  0  0  0  0  0  0
   18.1725  -36.2317  -20.1270 H   0  0  0  0  0  0  0  0  0  0  0  0
   17.0837  -36.3321  -22.2900 H   0  0  0  0  0  0  0  0  0  0  0  0
   15.9838  -34.3619  -23.1742 H   0  0  0  0  0  0  0  0  0  0  0  0
   11.8169  -29.6098  -24.9762 H   0  0  0  0  0  0  0  0  0  0  0  0
   10.7040  -37.8929  -25.5784 H   0  0  0  0  0  0  0  0  0  0  0  0
    8.9517  -38.8547  -24.2041 H   0  0  0  0  0  0  0  0  0  0  0  0
    6.8647  -37.6660  -23.9070 H   0  0  0  0  0  0  0  0  0  0  0  0
    6.5350  -35.4905  -24.9149 H   0  0  0  0  0  0  0  0  0  0  0  0
    8.3201  -34.4822  -26.2061 H   0  0  0  0  0  0  0  0  0  0  0  0
   11.4890  -37.4369  -28.8899 H   0  0  0  0  0  0  0  0  0  0  0  0
   10.5118  -38.0046  -31.0351 H   0  0  0  0  0  0  0  0  0  0  0  0
    8.5768  -36.7880  -31.8395 H   0  0  0  0  0  0  0  0  0  0  0  0
    7.6437  -34.9735  -30.5395 H   0  0  0  0  0  0  0  0  0  0  0  0
    8.6563  -34.3585  -28.4279 H   0  0  0  0  0  0  0  0  0  0  0  0
   12.3024  -35.8824  -24.0079 H   0  0  0  0  0  0  0  0  0  0  0  0
   15.1222  -36.0348  -24.2740 H   0  0  0  0  0  0  0  0  0  0  0  0
   14.1295  -36.6360  -22.1818 H   0  0  0  0  0  0  0  0  0  0  0  0
   14.9175  -38.0872  -22.9225 H   0  0  0  0  0  0  0  0  0  0  0  0
   12.1505  -37.0879  -21.0789 H   0  0  0  0  0  0  0  0  0  0  0  0
   10.1847  -38.4409  -20.7036 H   0  0  0  0  0  0  0  0  0  0  0  0
    9.7599  -40.3848  -22.0712 H   0  0  0  0  0  0  0  0  0  0  0  0
   11.2617  -40.9535  -23.8773 H   0  0  0  0  0  0  0  0  0  0  0  0
   13.2214  -39.6055  -24.2982 H   0  0  0  0  0  0  0  0  0  0  0  0
   12.9415  -37.2159  -26.5247 H   0  0  0  0  0  0  0  0  0  0  0  0
   14.0104  -38.3155  -27.2702 H   0  0  0  0  0  0  0  0  0  0  0  0
  1  2  1  0  0  0  0
  1  5  1  0  0  0  0
  1 15  1  0  0  0  0
  1 44  1  6  0  0  0
  2  3  1  0  0  0  0
  2 45  1  0  0  0  0
  2 46  1  0  0  0  0
  3 10  1  0  0  0  0
  3 47  1  0  0  0  0
  3 48  1  0  0  0  0
  4 11  2  0  0  0  0
  4 12  1  0  0  0  0
  4 49  1  0  0  0  0
  5 50  1  0  0  0  0
  5 51  1  0  0  0  0
  5 52  1  0  0  0  0
  6  7  1  0  0  0  0
  6 15  1  0  0  0  0
  6 53  1  0  0  0  0
  6 54  1  0  0  0  0
  7  8  1  0  0  0  0
  7 30  1  0  0  0  0
  7 55  1  1  0  0  0
  8  9  1  0  0  0  0
  8 56  1  0  0  0  0
  8 57  1  0  0  0  0
  9 18  1  0  0  0  0
  9 24  1  0  0  0  0
  9 58  1  0  0  0  0
 10 11  1  0  0  0  0
 10 14  2  0  0  0  0
 11 59  1  0  0  0  0
 12 13  2  0  0  0  0
 12 60  1  0  0  0  0
 13 14  1  0  0  0  0
 13 61  1  0  0  0  0
 14 62  1  0  0  0  0
 15 16  2  1  0  0  0
 15 17  1  0  0  0  0
 17 63  1  0  0  0  0
 18 19  2  0  0  0  0
 18 23  1  0  0  0  0
 19 20  1  0  0  0  0
 19 64  1  0  0  0  0
 20 21  2  0  0  0  0
 20 65  1  0  0  0  0
 21 22  1  0  0  0  0
 21 66  1  0  0  0  0
 22 23  2  0  0  0  0
 22 67  1  0  0  0  0
 23 68  1  0  0  0  0
 24 25  2  0  0  0  0
 24 29  1  0  0  0  0
 25 26  1  0  0  0  0
 25 69  1  0  0  0  0
 26 27  2  0  0  0  0
 26 70  1  0  0  0  0
 27 28  1  0  0  0  0
 27 71  1  0  0  0  0
 28 29  2  0  0  0  0
 28 72  1  0  0  0  0
 29 73  1  0  0  0  0
 30 31  2  0  0  0  0
 30 32  1  0  0  0  0
 32 33  1  0  0  0  0
 32 74  1  0  0  0  0
 33 34  1  0  0  0  0
 33 41  1  0  0  0  0
 33 75  1  1  0  0  0
 34 35  1  0  0  0  0
 34 76  1  0  0  0  0
 34 77  1  0  0  0  0
 35 36  2  0  0  0  0
 35 40  1  0  0  0  0
 36 37  1  0  0  0  0
 36 78  1  0  0  0  0
 37 38  2  0  0  0  0
 37 79  1  0  0  0  0
 38 39  1  0  0  0  0
 38 80  1  0  0  0  0
 39 40  2  0  0  0  0
 39 81  1  0  0  0  0
 40 82  1  0  0  0  0
 41 42  1  0  0  0  0
 41 43  2  0  0  0  0
 42 83  1  0  0  0  0
 42 84  1  0  0  0  0
M  CHG  1   5   1
M  END
